Circuit: * E:\!!!HOCHSCHULE\Student-Research-Project-\schematics\ltspice\Student Research.asc

WARNING: Less than two connections to node 2V5.  This node is used by V2.
Instance "m:u3:14": Length shorter than recommended for a level 1 MOSFET.
Instance "m:u3:12": Length shorter than recommended for a level 1 MOSFET.
Instance "m:u2:14": Length shorter than recommended for a level 1 MOSFET.
Instance "m:u2:12": Length shorter than recommended for a level 1 MOSFET.
Instance "m:u1:14": Length shorter than recommended for a level 1 MOSFET.
Instance "m:u1:12": Length shorter than recommended for a level 1 MOSFET.
Direct Newton iteration failed to find .op point.  (Use ".option noopiter" to skip.)
Starting Gmin stepping
Increasing initial diagonal Gmin to 100
Increasing initial diagonal Gmin to 1000
Increasing initial diagonal Gmin to 10000
Increasing initial diagonal Gmin to 100000
Increasing initial diagonal Gmin to 1e+006
Initial Gmin=1e+006 failed
Gmin stepping failed

Starting source stepping with srcstepmethod=0
Source Step = 3.0303%
Source Step = 6.07244%
Starting source stepping with srcstepmethod=1
Source Step = 3.0303%
vernier = 0.25
Source stepping failed

Pseudo transient terminated at 1.02331 ms, solution accepted ready or not!
Changing Tseed to 1e-007
Changing Tseed to 1e-009
Changing Tseed to 1e-006
Changing Tseed to 1e-010
Changing Tseed to 1e-005
Changing Tseed to 1e-011
Changing Tseed to 0.0001
Changing Tseed to 1e-012
Changing Tseed to 0.001
Changing Tseed to 1e-013
Heightened Def Con from 1.87457e-013 to 1.87457e-013

Date: Fri Oct 18 08:13:20 2024
Total elapsed time: 14.114 seconds.

tnom = 27
temp = 27
method = modified trap
totiter = 531049
traniter = 521753
tranpoints = 91284
accept = 58370
rejected = 33012
matrix size = 147
fillins = 159
solver = Normal
Thread vector: 51.0/23.3[7] 6.2/4.2[7] 19.5/6.3[7] 1.9/1.3[4]  2592/500
Matrix Compiler1: 13.20 KB object code size  10.8/5.9/[4.5]
Matrix Compiler2: 13.36 KB object code size  2.0/5.0/[1.5]

