Circuit: * C:\Users\Paul\Documents\Student-Research-Project-\schematics\ltspice\Student Research.asc

WARNING: Node NC_02 is floating.

WARNING: Less than two connections to node NC_01.  This node is used by R7.
WARNING: Less than two connections to node NC_02.  This node is used by R7.
Instance "m:u3:14": Length shorter than recommended for a level 1 MOSFET.
Instance "m:u3:12": Length shorter than recommended for a level 1 MOSFET.
Instance "m:u2:14": Length shorter than recommended for a level 1 MOSFET.
Instance "m:u2:12": Length shorter than recommended for a level 1 MOSFET.
Instance "m:u1:14": Length shorter than recommended for a level 1 MOSFET.
Instance "m:u1:12": Length shorter than recommended for a level 1 MOSFET.
Direct Newton iteration failed to find .op point.  (Use ".option noopiter" to skip.)
Starting Gmin stepping
Increasing initial diagonal Gmin to 100
Increasing initial diagonal Gmin to 1000
Increasing initial diagonal Gmin to 10000
Increasing initial diagonal Gmin to 100000
Increasing initial diagonal Gmin to 1e+006
Initial Gmin=1e+006 failed
Gmin stepping failed

Starting source stepping with srcstepmethod=0
Source Step = 3.0303%
vernier = 0.25
Source Step = 2.93561%
Source Step = 3.40909%
Source Step = 3.88258%
Source Step = 4.35606%
Source Step = 4.82955%
vernier = 0.0234375
Source Step = 5.3267%
Source Step = 6.03693%
Source Step = 6.74716%
Source Step = 7.45739%
Source Step = 8.16761%
Source Step = 8.87784%
vernier = 0.0351563
Source Step = 9.94318%
Source Step = 10.8221%
vernier = 0.00219727
Starting source stepping with srcstepmethod=1
Source Step = 3.0303%
vernier = 0.25
Source stepping failed

Pseudo Transient failed in finding the operating point at 9.83185 µs.
Trouble finding operating point....skipping operating point for Transient analysis.
Changing Tseed to 1e-007
Changing Tseed to 1e-009
Changing Tseed to 1e-006
Changing Tseed to 1e-010
Changing Tseed to 1e-005
Changing Tseed to 1e-011
Changing Tseed to 0.0001
Changing Tseed to 1e-012
Changing Tseed to 0.001
Changing Tseed to 1e-013
Changing Tseed to 0.01
Changing Tseed to 1e-014
to 2e-014

Date: Tue Oct 29 10:16:49 2024
Total elapsed time: 12.034 seconds.

tnom = 27
temp = 27
method = modified trap
totiter = 436171
traniter = 413416
tranpoints = 111901
accept = 82626
rejected = 29771
matrix size = 148
fillins = 185
solver = Normal
Thread vector: 55.6/22.7[7] 4.9/3.2[6] 9.7/4.5[7] 0.5/2.0[1]  2592/500
Matrix Compiler1: 12.25 KB object code size  7.2/1.8/[0.9]
Matrix Compiler2: 13.87 KB object code size  4.9/3.3/[0.8]

