Circuit: * E:\!!!HOCHSCHULE\Student-Research-Project-\schematics\ltspice\Student Research.asc

WARNING: Less than two connections to node 2V5.  This node is used by V2.
Instance "m:u3:14": Length shorter than recommended for a level 1 MOSFET.
Instance "m:u3:12": Length shorter than recommended for a level 1 MOSFET.
Instance "m:u2:14": Length shorter than recommended for a level 1 MOSFET.
Instance "m:u2:12": Length shorter than recommended for a level 1 MOSFET.
Instance "m:u1:14": Length shorter than recommended for a level 1 MOSFET.
Instance "m:u1:12": Length shorter than recommended for a level 1 MOSFET.
Direct Newton iteration failed to find .op point.  (Use ".option noopiter" to skip.)
Starting Gmin stepping
Increasing initial diagonal Gmin to 100
Increasing initial diagonal Gmin to 1000
Increasing initial diagonal Gmin to 10000
Increasing initial diagonal Gmin to 100000
Increasing initial diagonal Gmin to 1e+006
Initial Gmin=1e+006 failed
Gmin stepping failed

Starting source stepping with srcstepmethod=0
Source Step = 3.0303%
Source Step = 3.0451%
Starting source stepping with srcstepmethod=1
Source Step = 3.0303%
vernier = 0.25
Source stepping failed

Pseudo transient terminated at 1.03127 ms, solution accepted ready or not!

Date: Thu Oct 17 13:58:42 2024
Total elapsed time: 0.504 seconds.

tnom = 27
temp = 27
method = trap
totiter = 9053
traniter = 0
tranpoints = 0
accept = 0
rejected = 92
matrix size = 146
fillins = 154
solver = Normal
Matrix Compiler1:     729 opcodes  1.9/[0.9]/0.9
Matrix Compiler2: 13.28 KB object code size  2.5/5.4/[1.9]

