Circuit: * C:\Users\Paul\Documents\Student-Research-Project-\schematics\ltspice\Student Research.asc

Instance "m:u3:14": Length shorter than recommended for a level 1 MOSFET.
Instance "m:u3:12": Length shorter than recommended for a level 1 MOSFET.
Instance "m:u2:14": Length shorter than recommended for a level 1 MOSFET.
Instance "m:u2:12": Length shorter than recommended for a level 1 MOSFET.
Instance "m:u1:14": Length shorter than recommended for a level 1 MOSFET.
Instance "m:u1:12": Length shorter than recommended for a level 1 MOSFET.
Direct Newton iteration failed to find .op point.  (Use ".option noopiter" to skip.)
Starting Gmin stepping
Increasing initial diagonal Gmin to 100
Increasing initial diagonal Gmin to 1000
Increasing initial diagonal Gmin to 10000
Increasing initial diagonal Gmin to 100000
Increasing initial diagonal Gmin to 1e+006
Initial Gmin=1e+006 failed
Gmin stepping failed

Starting source stepping with srcstepmethod=0
Source Step = 3.0303%
vernier = 0.25
Source Step = 2.93561%
Source Step = 3.40909%
Source Step = 3.88258%
Source Step = 4.35606%
Source Step = 4.82955%
vernier = 0.0234375
Source Step = 5.3267%
Source Step = 6.03693%
Source Step = 6.74716%
Source Step = 7.45739%
Source Step = 8.16761%
Source Step = 8.87784%
vernier = 0.0351563
Source Step = 9.94318%
Source Step = 10.8221%
vernier = 0.00219727
Starting source stepping with srcstepmethod=1
Source Step = 3.0303%
vernier = 0.25
Source stepping failed

Pseudo Transient succeeded in finding the operating point at 45.5257 s.

Date: Tue Oct 29 10:28:22 2024
Total elapsed time: 2.866 seconds.

tnom = 27
temp = 27
method = modified trap
totiter = 72605
traniter = 59715
tranpoints = 27088
accept = 18767
rejected = 8508
matrix size = 146
fillins = 178
solver = Normal
Thread vector: 22.4/7.8[7] 7.5/2.3[7] 14.0/3.7[7] 0.5/0.7[1]  2592/500
Matrix Compiler1: 12.39 KB object code size  7.4/3.2/[0.6]
Matrix Compiler2: 13.62 KB object code size  2.0/3.2/[0.8]

