Circuit: * E:\!!!HOCHSCHULE\Student-Research-Project-\schematics\ltspice\Student Research.asc

Instance "m:u3:14": Length shorter than recommended for a level 1 MOSFET.
Instance "m:u3:12": Length shorter than recommended for a level 1 MOSFET.
Instance "m:u2:14": Length shorter than recommended for a level 1 MOSFET.
Instance "m:u2:12": Length shorter than recommended for a level 1 MOSFET.
Instance "m:u1:14": Length shorter than recommended for a level 1 MOSFET.
Instance "m:u1:12": Length shorter than recommended for a level 1 MOSFET.
Direct Newton iteration failed to find .op point.  (Use ".option noopiter" to skip.)
Starting Gmin stepping
Increasing initial diagonal Gmin to 100
Increasing initial diagonal Gmin to 1000
Increasing initial diagonal Gmin to 10000
Increasing initial diagonal Gmin to 100000
Increasing initial diagonal Gmin to 1e+006
Initial Gmin=1e+006 failed
Gmin stepping failed

Starting source stepping with srcstepmethod=0
Source Step = 3.0303%
vernier = 0.25
Source Step = 2.93561%
Source Step = 3.40909%
Source Step = 3.88258%
Source Step = 4.35606%
Source Step = 4.82955%
vernier = 0.0234375
Source Step = 5.3267%
Source Step = 6.03693%
Source Step = 6.74716%
Source Step = 7.45739%
Source Step = 8.16761%
Source Step = 8.87784%
vernier = 0.0351563
Source Step = 9.94318%
Source Step = 10.8221%
vernier = 0.00219727
Starting source stepping with srcstepmethod=1
Source Step = 3.0303%
vernier = 0.25
Source stepping failed

Pseudo Transient succeeded in finding the operating point at 46.4494 s.
Heightened Def Con from 0.0259507 to 0.0259507
Heightened Def Con from 0.0259507 to 0.0259507
Heightened Def Con from 0.0259507 to 0.0259507
Heightened Def Con from 0.0259507 to 0.0259507
Heightened Def Con from 0.0259507 to 0.0259507

Date: Sun Oct 20 15:08:21 2024
Total elapsed time: 2.818 seconds.

tnom = 27
temp = 27
method = modified trap
totiter = 80080
traniter = 63068
tranpoints = 27431
accept = 19028
rejected = 8700
matrix size = 145
fillins = 176
solver = Normal
Thread vector: 9.7/5.6[7] 3.7/1.7[7] 9.8/3.6[7] 0.3/1.2[1]  2592/500
Matrix Compiler1: 12.28 KB object code size  3.7/1.3/[0.6]
Matrix Compiler2: 13.49 KB object code size  1.1/1.9/[0.5]

