Circuit: * C:\Users\Paul\Documents\Student-Research-Project-\schematics\ltspice\Student Research.asc

Instance "m:u3:14": Length shorter than recommended for a level 1 MOSFET.
Instance "m:u3:12": Length shorter than recommended for a level 1 MOSFET.
Instance "m:u2:14": Length shorter than recommended for a level 1 MOSFET.
Instance "m:u2:12": Length shorter than recommended for a level 1 MOSFET.
Instance "m:u1:14": Length shorter than recommended for a level 1 MOSFET.
Instance "m:u1:12": Length shorter than recommended for a level 1 MOSFET.
Direct Newton iteration failed to find .op point.  (Use ".option noopiter" to skip.)
Starting Gmin stepping
Increasing initial diagonal Gmin to 100
Increasing initial diagonal Gmin to 1000
Increasing initial diagonal Gmin to 10000
Increasing initial diagonal Gmin to 100000
Increasing initial diagonal Gmin to 1e+006
Initial Gmin=1e+006 failed
Gmin stepping failed

Starting source stepping with srcstepmethod=0
Source Step = 3.0303%
vernier = 0.25
Source Step = 0.0177557%
Starting source stepping with srcstepmethod=1
Source Step = 3.0303%
vernier = 0.25
Source stepping failed

Pseudo Transient succeeded in finding the operating point at 47.549 s.

Date: Sun Nov 17 10:56:36 2024
Total elapsed time: 0.807 seconds.

tnom = 27
temp = 27
method = trap
totiter = 14270
traniter = 0
tranpoints = 0
accept = 0
rejected = 230
matrix size = 146
fillins = 146
solver = Normal
Matrix Compiler1: 12.30 KB object code size  2.7/1.3/[1.4]
Matrix Compiler2: 13.00 KB object code size  1.4/2.7/[1.2]

