Circuit: * C:\Users\Paul\Documents\Student-Research-Project-\schematics\ltspice\Student Research.asc

Instance "m:u3:14": Length shorter than recommended for a level 1 MOSFET.
Instance "m:u3:12": Length shorter than recommended for a level 1 MOSFET.
Instance "m:u2:14": Length shorter than recommended for a level 1 MOSFET.
Instance "m:u2:12": Length shorter than recommended for a level 1 MOSFET.
Instance "m:u1:14": Length shorter than recommended for a level 1 MOSFET.
Instance "m:u1:12": Length shorter than recommended for a level 1 MOSFET.
Direct Newton iteration failed to find .op point.  (Use ".option noopiter" to skip.)
Starting Gmin stepping
Increasing initial diagonal Gmin to 100
Increasing initial diagonal Gmin to 1000
Increasing initial diagonal Gmin to 10000
Increasing initial diagonal Gmin to 100000
Increasing initial diagonal Gmin to 1e+006
Initial Gmin=1e+006 failed
Gmin stepping failed

Starting source stepping with srcstepmethod=0
Source Step = 3.0303%
vernier = 0.25
Source Step = 2.93561%
Source Step = 3.40909%
Source Step = 3.88258%
Source Step = 4.35606%
Source Step = 4.82955%
vernier = 0.0234375
Source Step = 5.3267%
Source Step = 6.03693%
Source Step = 6.74716%
Source Step = 7.45739%
Source Step = 8.16761%
Source Step = 8.87784%
vernier = 0.0351563
Source Step = 9.94318%
Source Step = 10.8221%
vernier = 0.00219727
Starting source stepping with srcstepmethod=1
Source Step = 3.0303%
vernier = 0.25
Source stepping failed

Pseudo Transient failed in finding the operating point at 8.95755 µs.
Trouble finding operating point....skipping operating point for Transient analysis.
Changing Tseed to 1e-007
Changing Tseed to 1e-009
Changing Tseed to 1e-006
Changing Tseed to 1e-010
Changing Tseed to 1e-005
Changing Tseed to 1e-011
Changing Tseed to 0.0001
Changing Tseed to 1e-012
Changing Tseed to 0.001
Changing Tseed to 1e-013
Changing Tseed to 0.01
Changing Tseed to 1e-014
to 2e-014
Heightened Def Con from 0.020024 to 0.020024
Heightened Def Con from 0.0373886 to 0.0373886

Date: Sat Nov 09 11:36:48 2024
Total elapsed time: 33.324 seconds.

tnom = 27
temp = 27
method = modified trap
totiter = 1994736
traniter = 1973025
tranpoints = 481278
accept = 359135
rejected = 122617
matrix size = 146
fillins = 156
solver = Normal
Thread vector: 13.2/8.5[7] 3.5/1.7[7] 10.9/2.6[7] 0.4/2.1[1]  2592/500
Matrix Compiler1: 12.02 KB object code size  2.4/1.3/[0.5]
Matrix Compiler2: 13.21 KB object code size  1.1/2.0/[0.7]

